#Title
Automating Tough react

#----------------------------------------------------------------------------
#DEFINITION OF THE GEOCHEMICAL SYSTEM
#PRIMARY AQUEOUS SPECIES
     h2o       0
      h+       0
     na+       0
     cl-       0
   hco3-       0
    ca+2       0
   so4-2       0
    mg+2       0
  h4sio4       0
    al+3       0
    fe+2       0
     hs-       0
'*'

# AQUEOUS KINETICS
'*'

# AQUEOUS COMPLEXES
'*'

#MINERALS
                    C3FH6         1         3         0         0
          1.6000e-18    0  1.000  1.000  0.0    0    0    0
          1.6000e-18    0  1.000  1.000  0.0    0    0    0     1e-06    0
  0.0  0.0  0.0
         Tobermorite(11A)         1         3         0         0
          1.0000e-12    0  1.000  1.000  0.0    0    0    0
          1.0000e-12    0  1.000  1.000  0.0    0    0    0     1e-06    0
  0.0  0.0  0.0
                  Calcite         1         3         0         0
          1.5488e-06    2  1.000  1.000 23.5    0    0    0
                   1
                    5.0119e-01 14.4    1        h+     1.000
          1.5488e-06    0  1.000  1.000 23.5    0    0    0     1e-05    0
  0.0  0.0  0.0
                 CSH(1.6)         1         3         0         0
          1.0000e-12    0  1.000  1.000  0.0    0    0    0
          1.0000e-12    0  1.000  1.000  0.0    0    0    0     1e-06    0
  0.0  0.0  0.0
              Portlandite         1         3         0         0
          2.1800e-08    0  1.000  1.000 74.9    0    0    0
          2.1800e-08    0  1.000  1.000  0.0    0    0    0     1e-06    0
  0.0  0.0  0.0
               Ettringite         1         3         0         0
          1.2589e-12    0  1.000  1.000  0.0    0    0    0
          1.2589e-12    0  1.000  1.000  0.0    0    0    0     1e-06    0
  0.0  0.0  0.0
               KatoiteSi1         1         3         0         0
          1.2589e-12    0  1.000  1.000  0.0    0    0    0
          1.2589e-12    0  1.000  1.000  0.0    0    0    0     1e-06    0
  0.0  0.0  0.0
             Hydrotalcite         1         3         0         0
          1.2589e-12    0  1.000  1.000  0.0    0    0    0
          1.2589e-12    0  1.000  1.000  0.0    0    0    0     1e-06    0
  0.0  0.0  0.0
'*'

# GASES
co2(g)   0
'*'

# SURFACE COMPLEXES
'*'

# SPECIES WITH Kd AND DECAY
'*'

# EXCHANGEABLE CATIONS
'*'

#----------------------------------------------------------------------------
# # INITIAL AND BOUNDARY WATER TYPES
1    0
# Index  Speciation T(C)  P(bar)  
1    25.000        200.000
#        icon       NRguess(molal)  ctot (molal)   
h2o         1     1.0000e+00     1.0000e+00         *      0.00
h+         1     1.0000e-07     1.0000e-07         *      0.00
na+         1     1.0000e-10     2.9300e-02         *      0.00
cl-         1     1.0000e-10     1.0800e-03         *      0.00
hco3-         1     1.0000e-10     2.2100e-08         *      0.00
ca+2         1     1.0000e-10     5.9000e-03         *      0.00
so4-2         1     1.0000e-10     6.9400e-03         *      0.00
mg+2         1     1.0000e-10     2.5400e-08         *      0.00
h4sio4         1     1.0000e-10     1.0000e-10         *      0.00
al+3         1     1.0000e-10     9.9600e-05         *      0.00
fe+2         1     1.0000e-10     9.7000e-09         *      0.00
hs-         1     1.0000e-10     1.0000e-10         *      0.00
'*'

#----------------------------------------------------------------------------
# INITIAL MINERAL ZONES
1
1
# mineral         vol.frac
C3FH6    0.1000    0
   0.0e+00  20000.00    0
Tobermorite(11A)    0.0500    0
   0.0e+00  20000.00    0
Calcite    0.4000    1
   0.0e+00    260.00    0
CSH(1.6)    0.1000    1
   0.0e+00  20000.00    0
Portlandite    0.1000    1
   0.0e+00   1540.00    0
Ettringite    0.1000    1
   0.0e+00  20000.00    0
KatoiteSi1    0.1000    1
   0.0e+00    570.00    0
Hydrotalcite    0.0500    1
   0.0e+00   1000.00    0
'*'

#----------------------------------------------------------------------------
# INITIAL and Injection gas ZONES 
1    0
1
#gas      partial pressure (bar) !if zero or blank, equil with solution   
co2(g)           1.10
'*'

#----------------------------------------------------------------------------
# Permeability-Porosity Zones
1
1
# Perm law  a-parameter  b-parameter
   1      0.000e+00      0.000e+00
'*'

# INITIAL SURFACE ADSORPTION ZONES
'*'

# INITIAL LINEAR EQUILIBRIUM Kd ZONE
'*'

# INITIAL ZONES OF CATION EXCHANGE
'*'

ENDCY
